dmso
     RDKit          3D

 10  9  0  0  0  0  0  0  0  0999 V2000
   -1.4749    0.2713    0.2036 C   0  0  0  0  0  0  0  0  0  0  0  0
   -0.0488   -0.1189   -0.7426 S   0  0  0  0  0  0  0  0  0  0  0  0
    1.4950    0.0660    0.1077 C   0  0  0  0  0  0  0  0  0  0  0  0
   -0.0863   -1.4716   -1.4136 O   0  0  0  0  0  0  0  0  0  0  0  0
   -2.0856    1.0321   -0.3627 H   0  0  0  0  0  0  0  0  0  0  0  0
   -1.2911    0.6219    1.2323 H   0  0  0  0  0  0  0  0  0  0  0  0
   -2.1423   -0.6320    0.2489 H   0  0  0  0  0  0  0  0  0  0  0  0
    1.6978   -0.8197    0.7544 H   0  0  0  0  0  0  0  0  0  0  0  0
    1.6216    1.0124    0.6404 H   0  0  0  0  0  0  0  0  0  0  0  0
    2.3145    0.0385   -0.6685 H   0  0  0  0  0  0  0  0  0  0  0  0
  1  2  1  0
  2  3  1  0
  2  4  2  0
  1  5  1  0
  1  6  1  0
  1  7  1  0
  3  8  1  0
  3  9  1  0
  3 10  1  0
M  END

